Test Authentication on GitHub.
Added new content.
New Line.